sistemas/EXIC/NE224-C3/EXIC_NE224-C3JPMOD170_6.LIS
CEPEL - CENTRO DE PESQUISAS DE ENERGIA ELETRICA - PROGRAMA DE ANALISE DE REDES - V11.07.02                                 PAG.  41

 **EPE DECENAL 2032** PESADA ** ANO 2026 ** NORTE SECO                           
 RELATORIO DE EXECUCAO DO FLUXO DE POTENCIA CONTINUADO

 Opcoes Ativadas: CREM CTAP STEP BPSI NEWT RCVG RMON FILE CONT CELO ATCR INDC STPO CTAF CTAF

 X----X----------------X--------------------------X-------------X---------X
                            AUMENTO DA CARGA                               
  NUM.   CONVERGENCIA        ATIVA E REATIVA (%)   CARGA DA AREA PASSO MAX 
          STATUS    P/Q  MAXIMO    AREA    SISTEMA   MW / Mvar    P/Q (%)  
 X----X------------X---X--------X--------X--------X-------------X---------X

     0 Convergente    0    0.000    0.000    0.000 10356.97 MW      1.0000
                      0    0.000    0.000    0.000  -881.33 Mvar    0.9000
     1 Convergente    3    1.000    1.000    1.000 10460.53 MW      1.0000
                      3    0.900    0.900    0.900  -889.26 Mvar    0.9000
     2 Convergente    3    2.000    2.000    2.000 10564.10 MW      1.0000
                      3    1.800    1.800    1.800  -897.19 Mvar    0.9000
     3 Convergente    3    3.000    3.000    3.000 10667.67 MW      1.0000
                      3    2.700    2.700    2.700  -905.12 Mvar    0.9000
     4 Convergente    3    4.000    4.000    4.000 10771.24 MW      1.0000
                      3    3.600    3.600    3.600  -913.06 Mvar    0.9000
     5 Convergente    3    5.000    5.000    5.000 10874.81 MW      1.0000
                      3    4.500    4.500    4.500  -920.99 Mvar    0.9000
     6 Convergente    3    6.000    6.000    6.000 10978.38 MW      1.0000
                      3    5.400    5.400    5.400  -928.92 Mvar    0.9000
     7 Convergente    3    7.000    7.000    7.000 11081.95 MW      1.0000
                      3    6.300    6.300    6.300  -936.85 Mvar    0.9000
     8 Convergente    3    8.000    8.000    8.000 11185.52 MW      1.0000
                      3    7.200    7.200    7.200  -944.78 Mvar    0.9000
     9 Convergente    3    9.000    9.000    9.000 11289.09 MW      1.0000
                      3    8.100    8.100    8.100  -952.72 Mvar    0.9000
    10 Convergente    3   10.000   10.000   10.000 11392.66 MW      1.0000
                      3    9.000    9.000    9.000  -960.65 Mvar    0.9000
    11 Convergente    3   11.000   11.000   11.000 11496.23 MW      1.0000
                      3    9.900    9.900    9.900  -968.58 Mvar    0.9000
    12 Convergente    3   12.000   12.000   12.000 11599.80 MW      1.0000
                      3   10.800   10.800   10.800  -976.51 Mvar    0.9000
    13 Convergente    3   13.000   13.000   13.000 11703.37 MW      1.0000
                      3   11.700   11.700   11.700  -984.44 Mvar    0.9000
    14 Convergente    3   14.000   14.000   14.000 11806.94 MW      1.0000
                      3   12.600   12.600   12.600  -992.38 Mvar    0.9000
    15 Convergente    3   15.000   15.000   15.000 11910.51 MW      1.0000
                      3   13.500   13.500   13.500 -1000.31 Mvar    0.9000
    16 Convergente    3   16.000   16.000   16.000 12014.08 MW      1.0000
                      3   14.400   14.400   14.400 -1008.24 Mvar    0.9000
    17 Convergente    3   17.000   17.000   17.000 12117.65 MW      1.0000
                      3   15.300   15.300   15.300 -1016.17 Mvar    0.9000
    18 Convergente    3   18.000   18.000   18.000 12221.22 MW      1.0000
                      3   16.200   16.200   16.200 -1024.10 Mvar    0.9000
    19 Convergente    3   19.000   19.000   19.000 12324.79 MW      1.0000
                      3   17.100   17.100   17.100 -1032.04 Mvar    0.9000
    20 Convergente    3   20.000   20.000   20.000 12428.36 MW      1.0000
                      3   18.000   18.000   18.000 -1039.97 Mvar    0.9000
    21 Convergente    2   21.000   21.000   21.000 12531.93 MW      1.0000
                      2   18.900   18.900   18.900 -1047.90 Mvar    0.9000
CEPEL - CENTRO DE PESQUISAS DE ENERGIA ELETRICA - PROGRAMA DE ANALISE DE REDES - V11.07.02                                 PAG.  42

    22.0000                                                                      
 RELATORIO DE EXECUCAO DO FLUXO DE POTENCIA CONTINUADO

 Opcoes Ativadas: CREM CTAP STEP BPSI NEWT RCVG RMON FILE CONT CELO ATCR INDC STPO CTAF CTAF

 X----X----------------X--------------------------X-------------X---------X
                            AUMENTO DA CARGA                               
  NUM.   CONVERGENCIA        ATIVA E REATIVA (%)   CARGA DA AREA PASSO MAX 
          STATUS    P/Q  MAXIMO    AREA    SISTEMA   MW / Mvar    P/Q (%)  
 X----X------------X---X--------X--------X--------X-------------X---------X

    22 Convergente    2   22.000   22.000   22.000 12635.50 MW      1.0000
                      2   19.800   19.800   19.800 -1055.83 Mvar    0.9000
    23 Convergente    2   23.000   23.000   23.000 12739.07 MW      1.0000
                      2   20.700   20.700   20.700 -1063.76 Mvar    0.9000
    24 Convergente    2   24.000   24.000   24.000 12842.64 MW      1.0000
                      2   21.600   21.600   21.600 -1071.69 Mvar    0.9000
    25 Convergente    2   25.000   25.000   25.000 12946.21 MW      1.0000
                      2   22.500   22.500   22.500 -1079.63 Mvar    0.9000
    26 Convergente    2   26.000   26.000   26.000 13049.78 MW      1.0000
                      2   23.400   23.400   23.400 -1087.56 Mvar    0.9000
    27 Convergente    2   27.000   27.000   27.000 13153.35 MW      1.0000
                      2   24.300   24.300   24.300 -1095.49 Mvar    0.9000
    28 Convergente    2   28.000   28.000   28.000 13256.92 MW      1.0000
                      2   25.200   25.200   25.200 -1103.42 Mvar    0.9000
    29 Convergente    2   29.000   29.000   29.000 13360.48 MW      1.0000
                      2   26.100   26.100   26.100 -1111.35 Mvar    0.9000
    30 Convergente    2   30.000   30.000   30.000 13464.05 MW      1.0000
                      2   27.000   27.000   27.000 -1119.29 Mvar    0.9000
 
 Numero maximo de iteracoes atingido
CEPEL - CENTRO DE PESQUISAS DE ENERGIA ELETRICA - PROGRAMA DE ANALISE DE REDES - V11.07.02                                 PAG.  43

 **EPE DECENAL 2032** PESADA ** ANO 2026 ** NORTE SECO                           
 RELATORIO DE TOTAIS DE AREA

 X----X--------X--------X--------X--------X--------X--------X--------X--------X
  AREA  GERACAO  INJ EQV   CARGA   ELO CC    SHUNT   EXPORT   IMPORT   PERDAS
  NUM.    MW/      MW/      MW/      MW/     Mvar/     MW/      MW/      MW/
         Mvar     Mvar     Mvar     Mvar     EQUIV    Mvar     Mvar     Mvar
 X----X--------X--------X--------X--------X--------X--------X--------X--------X

   200  14078.1      0.0  13464.1      0.0   2878.2      0.0      0.0    614.0
        -6351.3      0.0  -1119.3      0.0      0.0      0.0      0.0  -2353.8

 TOTAL  14078.1      0.0  13464.1      0.0   2878.2      0.0      0.0    614.0
        -6351.3      0.0  -1119.3      0.0      0.0      0.0      0.0  -2353.8
CEPEL - CENTRO DE PESQUISAS DE ENERGIA ELETRICA - PROGRAMA DE ANALISE DE REDES - V11.07.02                                 PAG.  44

 **EPE DECENAL 2032** PESADA ** ANO 2026 ** NORTE SECO                           
 Listagem dos casos armazenados de Fluxo de Potencia - ANAREDE
 Arquivo Historico: C:\USERS\JOAOPEDROPETERSBARBO\DROPBOX\GITPYANA\PYANA\SISTEMAS\EXIC\NE224-C3\EXLF
 X----X-------------------------------------------------------------------------------------X
  CASO                      INFORMACOES DO CASO GRAVADO
 X----X-------------------------------------------------------------------------------------X

     1 DATA: 14/01/2025 / HORA: 23:23:02   / VERSAO DO PROGRAMA: V11.07.02             
 --------------------------------------------------------------------------------
                                   Comentarios                                   
 --------------------------------------------------------------------------------
     (-------------------------------- Comentarios ------------------------------
 ---)                                                                            
 SISTEMA NE REDUZIDO                                                             
CEPEL - CENTRO DE PESQUISAS DE ENERGIA ELETRICA - PROGRAMA DE ANALISE DE REDES - V11.07.02                                 PAG.  45

 **EPE DECENAL 2032** PESADA ** ANO 2026 ** NORTE SECO                           
 RELATORIO DE PADRAO PARA OPCOES DE EXECUCAO

 X------X------X------X------X------X------X------X------X------X------X
  OPCAO  OPCAO  OPCAO  OPCAO  OPCAO  OPCAO  OPCAO  OPCAO  OPCAO  OPCAO
  NOME E NOME E NOME E NOME E NOME E NOME E NOME E NOME E NOME E NOME E
 X----X-X----X-X----X-X----X-X----X-X----X-X----X-X----X-X----X-X----X-X

  CREM L CTAP L STEP L NEWT L RCVG L RMON L FILE L SUBS L CONT L NOVO L
  CELO L MFCT L ATCR L INDC L AREG L STPO L VLCR L CPHS L


 *** AVISO ***: Nao foram encontradas inconsistencias no arquivo historico e ele sera restabelecido normalmente.
CEPEL - CENTRO DE PESQUISAS DE ENERGIA ELETRICA - PROGRAMA DE ANALISE DE REDES - V11.07.02                                 PAG.  46

 **EPE DECENAL 2032** PESADA ** ANO 2026 ** NORTE SECO                           
 RELATORIO DE CONVERGENCIA

 OPCOES ATIVADAS: CREM CTAP STEP BPSI NEWT RCVG RMON FILE CONT CELO ATCR INDC STPO VLCR CPHS





 CONVERGENCIA FINAL

 X-----------X------X------X---------------X---------------X---------------X
    ITERACAO          FREQ. ERRO MAX BARRA  ERRO MAX BARRA  ERRO MAX  CONV  
  FC  P  Q  V  M.O.   (Hz)      MW    NUM.     Mvar   NUM.  TENSAO %  NUM.  
 X--X--X--X--X------X------X---------X-----X---------X-----X---------X-----X

   0                             0.00     0      0.00     0
      0  0  0 1.0000 60.000      0.00   587      0.00   385     0.000     0
CEPEL - CENTRO DE PESQUISAS DE ENERGIA ELETRICA - PROGRAMA DE ANALISE DE REDES - V11.07.02                                 PAG.  47

 **EPE DECENAL 2032** PESADA ** ANO 2026 ** NORTE SECO                           

 --- CASO ANAREDE 07 GRAVADO. ---
 **EPE DECENAL 2032** PESADA ** ANO 2026 ** NORTE SECO                           

